Circuit: * H:\Academics\BITS\Year 4\4 - Semester 2\Analog Electronics\Labs\Lab 2\ASC Files\Darlington\Darlington - Rout.asc

Direct Newton iteration for .op point succeeded.

Date: Wed Feb 03 17:15:15 2021
Total elapsed time: 0.044 seconds.

tnom = 27
temp = 27
method = trap
totiter = 12
traniter = 0
tranpoints = 0
accept = 0
rejected = 0
matrix size = 8
fillins = 0
solver = Normal
Matrix Compiler1:      18 opcodes
Matrix Compiler2: 588 bytes object code size
