Circuit: * H:\Academics\BITS\Year 4\4 - Semester 2\Analog Electronics\Labs\Lab 2\ASC Files\Common Collector\Draft1.asc

